9
malonaldehyde_irc2_Cartesians_noMW point 1
C -1.20222 0.04387 0.00000
 C -0.00971 0.77999 0.00000
 C 1.20075 0.07380 -0.00000
 H -1.21476 -1.23694 0.00000
 O 1.24526 -1.20620 0.00000
 H -2.17250 0.55218 0.00000
 O -0.02317 1.86143 0.00000
 H 2.15801 0.60618 0.00000
 H 0.01834 -1.47430 0.00000
9
malonaldehyde_irc2_Cartesians_noMW point 2
C -1.20297 0.04341 0.00000
 C -0.00965 0.77831 0.00000
 C 1.20151 0.07325 -0.00000
 H -1.21588 -1.23734 0.00000
 O 1.24628 -1.20667 0.00000
 H -2.17261 0.55301 0.00000
 O -0.02306 1.85973 0.00000
 H 2.15815 0.60682 0.00000
 H 0.01822 -1.47052 0.00000
9
malonaldehyde_irc2_Cartesians_noMW point 3
C -1.20376 0.04293 0.00000
 C -0.00959 0.77654 0.00000
 C 1.20232 0.07268 -0.00000
 H -1.21704 -1.23776 0.00000
 O 1.24735 -1.20717 0.00000
 H -2.17273 0.55388 0.00000
 O -0.02295 1.85794 0.00000
 H 2.15830 0.60750 0.00000
 H 0.01810 -1.46655 0.00000
9
malonaldehyde_irc2_Cartesians_noMW point 4
C -1.20455 0.04245 0.00000
 C -0.00953 0.77478 0.00000
 C 1.20313 0.07210 -0.00000
 H -1.21821 -1.23819 0.00000
 O 1.24843 -1.20767 0.00000
 H -2.17285 0.55476 0.00000
 O -0.02283 1.85616 0.00000
 H 2.15845 0.60819 0.00000
 H 0.01798 -1.46257 0.00000
9
malonaldehyde_irc2_Cartesians_noMW point 5
C -1.20513 0.04210 0.00000
 C -0.00949 0.77348 0.00000
 C 1.20372 0.07168 -0.00000
 H -1.21907 -1.23850 0.00000
 O 1.24922 -1.20804 0.00000
 H -2.17294 0.55540 0.00000
 O -0.02275 1.85484 0.00000
 H 2.15855 0.60869 0.00000
 H 0.01789 -1.45965 0.00000
9
malonaldehyde_irc2_Cartesians_noMW point 6
C -1.20548 0.04189 0.00000
 C -0.00946 0.77271 0.00000
 C 1.20408 0.07143 -0.00000
 H -1.21958 -1.23868 0.00000
 O 1.24969 -1.20826 0.00000
 H -2.17299 0.55578 0.00000
 O -0.02270 1.85407 0.00000
 H 2.15862 0.60898 0.00000
 H 0.01784 -1.45792 0.00000
9
malonaldehyde_irc2_Cartesians_noMW point 7
C -1.20571 0.04174 0.00000
 C -0.00945 0.77218 0.00000
 C 1.20432 0.07126 -0.00000
 H -1.21993 -1.23881 0.00000
 O 1.25001 -1.20841 0.00000
 H -2.17302 0.55604 0.00000
 O -0.02267 1.85353 0.00000
 H 2.15866 0.60918 0.00000
 H 0.01780 -1.45673 0.00000
9
malonaldehyde_irc2_Cartesians_noMW point 8
C -1.20556 0.04184 0.00000
 C -0.00946 0.77253 0.00000
 C 1.20416 0.07137 -0.00000
 H -1.21970 -1.23872 0.00000
 O 1.24980 -1.20831 0.00000
 H -2.17300 0.55587 0.00000
 O -0.02269 1.85388 0.00000
 H 2.15863 0.60905 0.00000
 H 0.01782 -1.45750 0.00000
9
malonaldehyde_irc2_Cartesians_noMW point 9
C -1.22106 0.03242 0.00000
 C -0.00829 0.73793 0.00000
 C 1.21999 0.06014 -0.00000
 H -1.24263 -1.24701 0.00000
 O 1.27087 -1.21812 0.00000
 H -2.17534 0.57298 0.00000
 O -0.02049 1.81886 0.00000
 H 2.16151 0.62238 0.00000
 H 0.01543 -1.37957 0.00000
9
malonaldehyde_irc2_Cartesians_noMW point 10
C -1.23610 0.02329 0.00000
 C -0.00716 0.70435 0.00000
 C 1.23536 0.04924 -0.00000
 H -1.26488 -1.25506 0.00000
 O 1.29131 -1.22765 0.00000
 H -2.17760 0.58959 0.00000
 O -0.01835 1.78487 0.00000
 H 2.16431 0.63532 0.00000
 H 0.01312 -1.30394 0.00000
9
malonaldehyde_irc2_Cartesians_noMW point 11
C -1.23455 0.02422 0.00000
 C -0.00728 0.70780 0.00000
 C 1.23378 0.05035 -0.00000
 H -1.26260 -1.25423 0.00000
 O 1.28921 -1.22667 0.00000
 H -2.17737 0.58788 0.00000
 O -0.01857 1.78835 0.00000
 H 2.16402 0.63399 0.00000
 H 0.01336 -1.31170 0.00000
9
malonaldehyde_irc2_Cartesians_noMW point 12
C -1.23384 0.02466 0.00000
 C -0.00733 0.70939 0.00000
 C 1.23306 0.05087 -0.00000
 H -1.26154 -1.25385 0.00000
 O 1.28824 -1.22622 0.00000
 H -2.17726 0.58710 0.00000
 O -0.01867 1.78997 0.00000
 H 2.16389 0.63338 0.00000
 H 0.01347 -1.31529 0.00000
9
malonaldehyde_irc2_Cartesians_noMW point 13
C -1.23345 0.02490 0.00000
 C -0.00736 0.71027 0.00000
 C 1.23265 0.05116 -0.00000
 H -1.26096 -1.25364 0.00000
 O 1.28771 -1.22597 0.00000
 H -2.17720 0.58666 0.00000
 O -0.01873 1.79086 0.00000
 H 2.16381 0.63304 0.00000
 H 0.01353 -1.31728 0.00000
9
malonaldehyde_irc2_Cartesians_noMW point 14
C -1.23309 0.02511 0.00000
 C -0.00739 0.71106 0.00000
 C 1.23229 0.05142 -0.00000
 H -1.26043 -1.25345 0.00000
 O 1.28722 -1.22574 0.00000
 H -2.17715 0.58627 0.00000
 O -0.01878 1.79166 0.00000
 H 2.16375 0.63273 0.00000
 H 0.01358 -1.31906 0.00000
9
malonaldehyde_irc2_Cartesians_noMW point 15
C -1.23305 0.02514 0.00000
 C -0.00739 0.71116 0.00000
 C 1.23224 0.05145 -0.00000
 H -1.26037 -1.25343 0.00000
 O 1.28716 -1.22572 0.00000
 H -2.17714 0.58622 0.00000
 O -0.01879 1.79176 0.00000
 H 2.16374 0.63269 0.00000
 H 0.01359 -1.31928 0.00000
9
malonaldehyde_irc2_Cartesians_noMW point 16
C -1.23331 0.02498 0.00000
 C -0.00737 0.71058 0.00000
 C 1.23251 0.05126 -0.00000
 H -1.26075 -1.25357 0.00000
 O 1.28752 -1.22588 0.00000
 H -2.17718 0.58651 0.00000
 O -0.01875 1.79117 0.00000
 H 2.16379 0.63292 0.00000
 H 0.01355 -1.31797 0.00000
