9
malonaldehyde_manipulated_Cartesians_noMW point 1
C -1.42579 0.01792 0.00000
 C -0.05148 0.79569 0.00000
 C 0.96174 0.10338 0.00000
 H -1.49024 -1.07356 0.00000
 O 0.95332 -1.36851 0.00000
 H -2.29793 0.80525 0.00000
 O 0.00086 1.87820 0.00000
 H 2.03700 0.33555 0.00000
 H 1.31252 -1.49393 0.00000
