9
malonaldehyde_manipulated_Cartesians_noMW point 1
C -1.12019 0.02434 0.00000
 C -0.00866 0.87416 0.00000
 C 1.11983 0.04547 0.00000
 H -0.86894 -1.25439 0.00000
 O 0.89313 -1.23953 0.00000
 H -2.17960 0.36051 0.00000
 O -0.01907 1.95126 0.00000
 H 2.17361 0.40261 0.00000
 H 0.00989 -1.16443 0.00000
